[TITLE]
Richmond Skelton Water Supply System
For more information on this network, see the file Richmond_readme.text distrib
with this network, or email Kobus van Zyl at jevz@ing.rau.ac.za or kobusvanzyl@

[JUNCTIONS]
 4                                   183.0000
 9                                    68.8500
 10                                  166.4200
 42                                   60.0000
 104                                 184.0000
 164                                  65.0000
 175                                  65.0000
 186                                 112.1800
 197                                 115.0000
 206                                 134.9900
 249                                 101.0000
 264                                 184.0000
 284                                 186.0000
 312                                 242.0000
 320                                 242.0000
 321                                 242.0000
 325                                 242.0000
 353                                 185.7800
 364                                 217.0000
 632                                  69.0000
 633                                  69.0000
 634                                 139.0200
 635                                 139.8200
 636                                 139.8200
 637                                 140.0000
 701                                 198.3300
 729                                 202.1500
 745                                 177.0000
 753                                 177.0000
 766                                  69.7000
 768                                  69.5900
 770                                  69.3900
 771                                  69.0000
 1125                                184.0000
 1302                                216.6500
 1963                                 70.0000
 2009                                 70.0000
 1250                                186.0000
 774                                 188.0000
 2010                                 69.0000
 777                                 100.0000

[RESERVOIRS]
 O                                     1.0000  40                            

[TANKS]
 C                                   258.9000       1.8400       0.0000       2.0000       6.6000       0.0000                                
 A                                   184.1300       3.1200       0.0000       3.3700      23.5000       0.0000                                
 D                                   241.1800       1.9400       0.0000       2.1100      11.8000       0.0000                                
 B                                   216.0000       3.3700       0.0000       3.6500      15.4000       0.0000                                
 E                                   203.0100       2.4700       0.0000       2.6900       8.0000       0.0000                                
 F                                   235.7100       1.9600       0.0000       2.1900       3.6000       0.0000                                

[PIPES]
 788                             A                               4                                    18.0000     150.0000     120.0000       0.0000       
 790                             4                               10                                  401.0000     150.0000     120.0000       0.0000       
 793                             4                               104                                  18.0000     150.0000     120.0000       0.0000       
 794                             9                               42                                 1087.0000     300.0000     140.0000       0.0000       
 841                             42                              164                                3002.0000     250.0000     140.0000       0.0000       
 911                             104                             206                                 846.0000     152.0000     110.0000       0.0000       
 912                             104                             264                                  44.0000     100.0000     100.0000       0.0000       
 993                             164                             175                                  18.0000     250.0000     130.0000       0.0000       
 1020                            186                             197                                   5.0000     250.0000     140.0000       0.0000       
 1033                            164                             197                                  16.0000     250.0000     137.5000       0.0000 CV    
 1036                            197                             284                                2003.0000     250.0000     130.0000       0.0000       
 1085                            206                             249                                  30.0000      76.0000      80.0000       0.0000       
 1107                            249                             634                                   6.0000     100.0000      70.0000       0.0000       
 1153                            284                             1250                                 13.0000     200.0000     130.0000       0.0000       
 1154                            1125                            312                                1261.0000     150.0000     100.0000       0.0000 CV    
 1178                            284                             774                                  18.0000     229.0000      75.0000       0.0000       
 1196                            312                             D                                    15.0000     100.0000      30.0000       0.0000 CV    
 1208                            320                             321                                   7.0000      80.0000      90.0000       0.0000       
 1209                            320                             325                                   3.0000     150.0000     100.0000       0.0000       
 1210                            321                             312                                  23.0000     150.0000     100.0000       0.0000 CV    
 1278                            353                             364                                 472.0000     200.0000     130.0000       0.0000       
 1301                            B                               1302                                 10.0000     152.0000      70.0000       0.0000       
 1304                            B                               364                                   7.0000     152.0000      70.0000       0.0000       
 1638                            632                             633                                   5.0000     300.0000     120.0000       0.0000       
 1645                            634                             635                                   2.0000     100.0000     130.0000       0.0000       
 1653                            636                             637                                   1.0000     100.0000     120.0000       0.0000 CV    
 1677                            2010                            770                                   5.0000     300.0000     120.0000       0.0000 CV    
 1740                            637                             C                                  4028.0000     100.0000     130.0000       0.0000       
 1752                            321                             701                                 365.0000     150.0000     140.0000       0.0000       
 1753                            701                             729                                5612.0000     152.0000     110.0000       0.0000       
 1783                            729                             E                                  1591.0000      76.0000      70.0000       0.0000 CV    
 1793                            E                               745                                 444.0000     102.0000      70.0000       0.0000 CV    
 1832                            753                             F                                  1216.0000      76.0000      87.5000       0.0000       
 1842                            766                             768                                   5.0000     300.0000     150.0000       0.0000       
 1844                            768                             770                                   4.0000     300.0000     150.0000       0.0000       
 1848                            770                             771                                   5.0000     300.0000     150.0000       0.0000       
 1849                            771                             9                                    26.0000     150.0000     100.0000       0.0000       
 1879                            774                             A                                     1.0000     150.0000     100.0000       0.0000       
 1913                            O                               632                                   8.0000     300.0000     120.0000       0.0000       
 1964                            633                             1963                                  4.0000     150.0000     100.0000       0.0000       
 1978                            D                               320                                  17.0000     150.0000     100.0000       0.0000       
 2010                            632                             2009                                  4.0000     150.0000     100.0000       0.0000       
 p1                              633                             2010                                  1.0000     300.0000     120.0000       0.0000       
 p2                              777                             A                                    20.0000     200.0000     100.0000       0.0000       

[PUMPS]
 7F                              745                             753                              HEAD 1883
 2A                              1963                            768                              HEAD 2015
 5C                              635                             636                              HEAD 1884
 6D                              264                             1125                             HEAD 1123
 3A                              175                             186                              HEAD 1006
 4B                              1250                            353                              HEAD 1881
 1A                              2009                            766                              HEAD 2007

[VALVES]

[DEMANDS]
 4                                     0.000000  Fac_11                         
 9                                     0.000000  Fac_11                         
 10                                    5.680000  domestic                       
 42                                    3.680000  domestic                       
 104                                   0.000000  Fac_11                         
 164                                   0.000000  Fac_11                         
 175                                   0.000000  Fac_11                         
 186                                   0.000000  Fac_11                         
 197                                   0.000000  Fac_11                         
 206                                   0.000000  Fac_11                         
 249                                  11.300000  domestic                       
 264                                   0.000000  Fac_11                         
 284                                   0.000000  Fac_11                         
 312                                   2.130000  domestic                       
 320                                   0.000000  Fac_11                         
 321                                   0.000000  Fac_11                         
 325                                   3.710000  domestic                       
 353                                   0.000000  Fac_11                         
 364                                   0.000000  Fac_11                         
 632                                   0.000000  Fac_11                         
 633                                   0.000000  Fac_11                         
 634                                   0.000000  Fac_11                         
 635                                   0.000000  Fac_11                         
 636                                   0.000000  Fac_11                         
 637                                   1.000000  domestic                       
 701                                   0.110000  domestic                       
 729                                   0.000000  Fac_11                         
 745                                   1.420000  domestic                       
 753                                   0.100000  domestic                       
 766                                   0.000000  Fac_11                         
 768                                   0.000000  Fac_11                         
 770                                   0.000000  Fac_11                         
 771                                   0.000000  Fac_11                         
 1125                                  0.000000  Fac_11                         
 1302                                 16.250000  domestic                       
 1963                                  0.000000  Fac_11                         
 2009                                  0.000000  Fac_11                         
 1250                                  0.000000  Fac_11                         
 774                                   0.000000  Fac_11                         
 2010                                  0.000000  Fac_11                         
 777                                  -9.160000  Fac_11                         

[EMITTERS]

[STATUS]
 7F                              closed
 2A                              closed
 5C                              closed
 6D                              closed
 3A                              closed
 4B                              closed
 1A                              closed

[PATTERNS]
 Fac_11                                1.0000
 CBTariff                              2.4093       2.4093       2.4093       2.4093       2.4093       2.4093
 CBTariff                              2.4093       6.7945       6.7945       6.7945       6.7945       6.7945
 CBTariff                              6.7945       6.7945       6.7945       6.7945       6.7945       6.7945
 CBTariff                              6.7945       6.7945       6.7945       6.7945       6.7945       6.7945
 HHTariff                              2.4600       2.4600       2.4600       2.4600       2.4600       2.4600
 HHTariff                              2.4600       9.8660       9.8660       9.8660       9.8660       9.8660
 HHTariff                              9.8660       9.8660       9.8660       9.8660       9.8660       9.8660
 HHTariff                              9.8660       9.8660       9.8660       9.8660       9.8660       9.8660
 LZGTariff                             2.4600       2.4600       2.4600       2.4600       2.4600       2.4600
 LZGTariff                             2.4600      11.1950      11.1950      11.1950      11.1950      11.1950
 LZGTariff                            11.1950      11.1950      11.1950      11.1950      11.1950      11.1950
 LZGTariff                            11.1950      11.1950      11.1950      11.1950      11.1950      11.1950
 LZHZTariff                            2.4567       2.4567       2.4567       2.4567       2.4567       2.4567
 LZHZTariff                            2.4567      12.3400      12.3400      12.3400      12.3400      12.3400
 LZHZTariff                           12.3400      12.3400      12.3400      12.3400      12.3400      12.3400
 LZHZTariff                           12.3400      12.3400      12.3400      12.3400      12.3400      12.3400
 STariff                               2.4400       2.4400       2.4400       2.4400       2.4400       2.4400
 STariff                               2.4400      11.9400      11.9400      11.9400      11.9400      11.9400
 STariff                              11.9400      11.9400      11.9400      11.9400      11.9400      11.9400
 STariff                              11.9400      11.9400      11.9400      11.9400      11.9400      11.9400
 STTariff                              2.4100       2.4100       2.4100       2.4100       2.4100       2.4100
 STTariff                              2.4100       7.5350       7.5350       7.5350       7.5350       7.5350
 STTariff                              7.5350       7.5350       7.5350       7.5350       7.5350       7.5350
 STTariff                              7.5350       7.5350       7.5350       7.5350       7.5350       7.5350
 40                                   70.3300      69.5500      69.4200      69.4200      70.3300      70.3300
 40                                   70.3300      70.3300      70.3300      70.3300      70.2900      70.2900
 40                                   70.3300      70.4200      70.4200      70.3700      69.6400      69.6800
 40                                   69.6800      70.4200      70.3700      70.3300      70.3300      70.3300
 domestic                              1.1000       1.6100       1.5300       1.4000       1.1500       1.0600
 domestic                              1.0400       1.0000       0.9200       0.9500       1.1600       1.3400
 domestic                              1.4500       1.3200       1.3300       1.1100       1.0700       0.7100
 domestic                              0.4800       0.4600       0.4000       0.3900       0.4100       0.5200

[CURVES]
;PUMP:   
 1006                                  0.0000      38.0000
 1006                                 10.0000      37.0000
 1006                                 20.0000      36.0000
 1006                                 30.0000      34.0000
 1006                                 40.0000      31.0000
 1006                                 50.0000      29.0000
 1006                                 60.0000      27.0000
 1006                                 70.0000      25.0000
;PUMP:   
 1123                                  0.0000      88.0000
 1123                                  2.7800      87.0000
 1123                                  5.5600      84.0000
 1123                                  8.5300      76.0000
 1123                                 11.1100      63.0000
 1123                                 13.8900      47.0000
;PUMP:   
 1641                                  0.0000     146.0000
 1641                                 10.0000     145.0000
 1641                                 15.0000     144.0000
 1641                                 20.0000     143.0000
 1641                                 25.0000     141.0000
 1641                                 30.0000     138.0000
 1641                                 35.0000     133.0000
 1641                                 40.0000     127.0000
 1641                                 45.0000     120.0000
 1641                                 50.0000     108.0000
;PUMP:   
 1659                                  0.0000     122.0000
 1659                                  2.2200     120.0000
 1659                                  2.7800     118.0000
 1659                                  3.3300     115.0000
 1659                                  3.8900     110.0000
 1659                                  4.4400     105.0000
 1659                                  5.0000      96.0000
 1659                                  5.5500      85.0000
 1659                                  6.1100      72.0000
;PUMP:   
 1691                                  0.0000     129.0000
 1691                                 10.0000     128.0000
 1691                                 15.0000     127.0000
 1691                                 20.0000     126.0000
 1691                                 25.0000     124.0000
 1691                                 30.0000     121.0000
 1691                                 35.0000     116.0000
 1691                                 40.0000     110.0000
 1691                                 45.0000     103.0000
 1691                                 50.0000      91.0000
;PUMP:   
 1881                                  0.0000      40.0000
 1881                                  6.9400      38.5000
 1881                                 13.8800      38.0000
 1881                                 20.8300      37.5000
 1881                                 27.7700      36.0000
 1881                                 34.7200      35.0000
 1881                                 41.6600      32.5000
 1881                                 48.6100      30.0000
 1881                                 55.5500      27.5000
 1881                                111.5000       7.5000
;PUMP:   
 1883                                  0.0000      37.0000
 1883                                  1.0000      36.9990
 1883                                  2.0000      36.9980
 1883                                  3.0000      36.9970
 1883                                  4.0000      36.9960
 1883                                  5.0000      36.9950
 1883                                  6.0000      36.9940
;PUMP:   
 1884                                  0.0000     122.0000
 1884                                  2.2200     120.0000
 1884                                  2.7800     118.0000
 1884                                  3.3300     115.0000
 1884                                  3.8900     110.0000
 1884                                  4.4400     105.0000
 1884                                  5.0000      96.0000
 1884                                  5.5500      85.0000
 1884                                  6.1100      72.0000
;PUMP:   
 1948                                  0.0000      20.0000
 1948                                  0.4000      19.0000
 1948                                  0.8000      16.0000
 1948                                  1.2000      13.0000
 1948                                  1.6000      11.0000
 1948                                  2.0000       7.0000
;PUMP:   
 2007                                  0.0000     129.0000
 2007                                 10.0000     128.0000
 2007                                 15.0000     127.0000
 2007                                 20.0000     126.0000
 2007                                 25.0000     124.0000
 2007                                 30.0000     121.0000
 2007                                 35.0000     116.0000
 2007                                 40.0000     110.0000
 2007                                 45.0000     103.0000
 2007                                 50.0000      91.0000
;PUMP:   
 2015                                  0.0000     129.0000
 2015                                 10.0000     128.0000
 2015                                 15.0000     127.0000
 2015                                 20.0000     126.0000
 2015                                 25.0000     124.0000
 2015                                 30.0000     121.0000
 2015                                 35.0000     116.0000
 2015                                 40.0000     110.0000
 2015                                 45.0000     103.0000
 2015                                 50.0000      91.0000
;EFFICIENCY:  
 HHEfficiency                          0.0000       0.0000
 HHEfficiency                          1.1000       0.0000
 HHEfficiency                          1.5000      48.0000
 HHEfficiency                          2.0000      57.0000
 HHEfficiency                          2.5000      62.0000
 HHEfficiency                          3.0000      67.0000
 HHEfficiency                          3.5000      71.0000
 HHEfficiency                          4.5000      71.0000
 HHEfficiency                          5.0000      69.0000
 HHEfficiency                          5.5000      67.0000
 HHEfficiency                          6.0000      62.0000
;EFFICIENCY:  
 CBNEfficiency                         0.0000       0.0000
 CBNEfficiency                        20.0000      57.0000
 CBNEfficiency                        25.0000      65.0000
 CBNEfficiency                        30.0000      71.0000
 CBNEfficiency                        35.0000      75.0000
 CBNEfficiency                        40.0000      75.0000
 CBNEfficiency                        45.0000      75.0000
 CBNEfficiency                        50.0000      73.0000
;EFFICIENCY:  
 CBOEfficiency                         0.0000       0.0000
 CBOEfficiency                        20.0000      57.0000
 CBOEfficiency                        25.0000      65.0000
 CBOEfficiency                        30.0000      71.0000
 CBOEfficiency                        35.0000      75.0000
 CBOEfficiency                        40.0000      75.0000
 CBOEfficiency                        45.0000      72.0000
 CBOEfficiency                        50.0000      70.0000
;EFFICIENCY:  
 LZGEfficiency                         0.0000       0.0000
 LZGEfficiency                         2.7000      32.0000
 LZGEfficiency                         5.5000      50.0000
 LZGEfficiency                         8.3000      55.0000
 LZGEfficiency                        11.1100      58.0000
 LZGEfficiency                        13.8000      47.0000
;EFFICIENCY:  
 LZHZEfficiency                        0.0000       0.0000
 LZHZEfficiency                       10.0000      40.0000
 LZHZEfficiency                       20.0000      50.0000
 LZHZEfficiency                       30.0000      61.0000
 LZHZEfficiency                       40.0000      68.0000
 LZHZEfficiency                       50.0000      71.0000
 LZHZEfficiency                       60.0000      72.0000
 LZHZEfficiency                       70.0000      72.0000
 LZHZEfficiency                       80.0000      71.0000
 LZHZEfficiency                       90.0000      68.0000
 LZHZEfficiency                      100.0000      61.0000
 LZHZEfficiency                      110.0000      50.0000
 LZHZEfficiency                      120.0000      40.0000
;EFFICIENCY:  
 SEfficiency                           0.0000       0.0000
 SEfficiency                           1.3800      31.0000
 SEfficiency                           2.7000      48.0000
 SEfficiency                           4.6000      54.0000
 SEfficiency                           5.5000      54.0000
 SEfficiency                           6.9400      43.0000
;EFFICIENCY:  
 STEfficiency                          0.0000       0.0000
 STEfficiency                         20.0000      34.0000
 STEfficiency                         40.0000      58.0000
 STEfficiency                         60.0000      72.0000
 STEfficiency                         80.0000      77.0000

[CONTROLS]
 LINK 1A 1.0000 IF NODE A BELOW 2.3685
 LINK 1A 0.0000 IF NODE A ABOVE 2.9799
 LINK 2A 1.0000 IF NODE A BELOW 3.0405
 LINK 2A 0.0000 IF NODE A ABOVE 3.2513
 LINK 3A 1.0000 IF NODE A BELOW 2.8888
 LINK 3A 0.0000 IF NODE A ABOVE 3.1126
 LINK 4B 1.0000 IF NODE B BELOW 3.2623
 LINK 4B 0.0000 IF NODE B ABOVE 3.5789
 LINK 5C 1.0000 IF NODE C BELOW 0.7185
 LINK 5C 0.0000 IF NODE C ABOVE 1.8850
 LINK 6D 1.0000 IF NODE D BELOW 1.5907
 LINK 6D 0.0000 IF NODE D ABOVE 1.9708
 LINK 7F 1.0000 IF NODE F BELOW 1.7037
 LINK 7F 0.0000 IF NODE F ABOVE 2.1095

[RULES]

[QUALITY]

[SOURCES]

[MIXING]
 C                               MIXED          1.0000
 A                               MIXED          1.0000
 D                               MIXED          1.0000
 B                               MIXED          1.0000
 E                               MIXED          1.0000
 F                               MIXED          1.0000

[REACTIONS]
 ORDER  BULK            1.00
 ORDER  WALL            1
 ORDER  TANK            1.00
 GLOBAL BULK            0.000000
 GLOBAL WALL            0.000000

[ENERGY]
 GLOBAL EFFIC        75.0000
 DEMAND CHARGE       0.0000
 PUMP 7F                              PRICE   1.0000
 PUMP 7F                              PATTERN STariff
 PUMP 7F                              EFFIC   SEfficiency
 PUMP 2A                              PRICE   1.0000
 PUMP 2A                              PATTERN CBTariff
 PUMP 2A                              EFFIC   CBNEfficiency
 PUMP 5C                              PRICE   1.0000
 PUMP 5C                              EFFIC   HHEfficiency
 PUMP 6D                              PRICE   1.0000
 PUMP 6D                              PATTERN LZGTariff
 PUMP 6D                              EFFIC   LZGEfficiency
 PUMP 3A                              PRICE   1.0000
 PUMP 3A                              PATTERN STTariff
 PUMP 3A                              EFFIC   STEfficiency
 PUMP 4B                              PRICE   1.0000
 PUMP 4B                              PATTERN LZHZTariff
 PUMP 4B                              EFFIC   LZHZEfficiency
 PUMP 1A                              PRICE   1.0000
 PUMP 1A                              PATTERN CBTariff
 PUMP 1A                              EFFIC   CBOEfficiency

[TIMES]
 DURATION            24:00:00
 HYDRAULIC TIMESTEP  1:00:00
 QUALITY TIMESTEP    0:05:00
 REPORT TIMESTEP     1:00:00